*SPEF "ieee 1481-1999"
*DESIGN "audio_soc_top"
*DATE "11:11:11 Fri 11 11, 1111"
*VENDOR "OpenRCX"
*PROGRAM "Parallel Extraction"
*VERSION "1.0"
*DESIGN_FLOW "NAME_SCOPE LOCAL" "PIN_CAP NONE"
*DIVIDER /
*DELIMITER :
*BUS_DELIMITER []
*T_UNIT 1 NS
*C_UNIT 1 PF
*R_UNIT 1 OHM
*L_UNIT 1 HENRY

*NAME_MAP
*1 net1
*2 clk
*3 rst_n
*4 FILLER_0_0_1005
*5 FILLER_0_0_1009
*6 FILLER_0_0_1021
*7 FILLER_0_0_1033
*8 FILLER_0_0_1037
*9 FILLER_0_0_1049
*10 FILLER_0_0_1061
*11 FILLER_0_0_1065
*12 FILLER_0_0_1077
*13 FILLER_0_0_1089
*14 FILLER_0_0_109
*15 FILLER_0_0_1093
*16 FILLER_0_0_1105
*17 FILLER_0_0_1117
*18 FILLER_0_0_1121
*19 FILLER_0_0_113
*20 FILLER_0_0_1133
*21 FILLER_0_0_1145
*22 FILLER_0_0_1149
*23 FILLER_0_0_1161
*24 FILLER_0_0_1173
*25 FILLER_0_0_1177
*26 FILLER_0_0_1189
*27 FILLER_0_0_1201
*28 FILLER_0_0_1205
*29 FILLER_0_0_1217
*30 FILLER_0_0_1229
*31 FILLER_0_0_1233
*32 FILLER_0_0_1245
*33 FILLER_0_0_125
*34 FILLER_0_0_1257
*35 FILLER_0_0_1261
*36 FILLER_0_0_1273
*37 FILLER_0_0_1285
*38 FILLER_0_0_1289
*39 FILLER_0_0_1301
*40 FILLER_0_0_1313
*41 FILLER_0_0_1317
*42 FILLER_0_0_1329
*43 FILLER_0_0_1341
*44 FILLER_0_0_1345
*45 FILLER_0_0_1357
*46 FILLER_0_0_1369
*47 FILLER_0_0_137
*48 FILLER_0_0_1373
*49 FILLER_0_0_1385
*50 FILLER_0_0_1397
*51 FILLER_0_0_1401
*52 FILLER_0_0_141
*53 FILLER_0_0_1413
*54 FILLER_0_0_1425
*55 FILLER_0_0_1429
*56 FILLER_0_0_1441
*57 FILLER_0_0_1453
*58 FILLER_0_0_1457
*59 FILLER_0_0_1469
*60 FILLER_0_0_1481
*61 FILLER_0_0_1485
*62 FILLER_0_0_1497
*63 FILLER_0_0_1509
*64 FILLER_0_0_1513
*65 FILLER_0_0_1525
*66 FILLER_0_0_153
*67 FILLER_0_0_1537
*68 FILLER_0_0_1541
*69 FILLER_0_0_1553
*70 FILLER_0_0_1565
*71 FILLER_0_0_1569
*72 FILLER_0_0_1581
*73 FILLER_0_0_1593
*74 FILLER_0_0_1597
*75 FILLER_0_0_1609
*76 FILLER_0_0_1621
*77 FILLER_0_0_1625
*78 FILLER_0_0_1637
*79 FILLER_0_0_1649
*80 FILLER_0_0_165
*81 FILLER_0_0_1653
*82 FILLER_0_0_1665
*83 FILLER_0_0_1677
*84 FILLER_0_0_1681
*85 FILLER_0_0_169
*86 FILLER_0_0_1693
*87 FILLER_0_0_1705
*88 FILLER_0_0_1709
*89 FILLER_0_0_1721
*90 FILLER_0_0_1733
*91 FILLER_0_0_1737
*92 FILLER_0_0_1749
*93 FILLER_0_0_1761
*94 FILLER_0_0_1765
*95 FILLER_0_0_1777
*96 FILLER_0_0_1789
*97 FILLER_0_0_1793
*98 FILLER_0_0_18
*99 FILLER_0_0_1805
*100 FILLER_0_0_181
*101 FILLER_0_0_1817
*102 FILLER_0_0_1821
*103 FILLER_0_0_1833
*104 FILLER_0_0_1845
*105 FILLER_0_0_1849
*106 FILLER_0_0_1861
*107 FILLER_0_0_1873
*108 FILLER_0_0_1877
*109 FILLER_0_0_1889
*110 FILLER_0_0_1901
*111 FILLER_0_0_1905
*112 FILLER_0_0_1917
*113 FILLER_0_0_1929
*114 FILLER_0_0_193
*115 FILLER_0_0_1933
*116 FILLER_0_0_1945
*117 FILLER_0_0_1957
*118 FILLER_0_0_1961
*119 FILLER_0_0_197
*120 FILLER_0_0_1973
*121 FILLER_0_0_1985
*122 FILLER_0_0_1989
*123 FILLER_0_0_2001
*124 FILLER_0_0_2013
*125 FILLER_0_0_2017
*126 FILLER_0_0_2029
*127 FILLER_0_0_2041
*128 FILLER_0_0_2045
*129 FILLER_0_0_2057
*130 FILLER_0_0_2069
*131 FILLER_0_0_2073
*132 FILLER_0_0_2085
*133 FILLER_0_0_209
*134 FILLER_0_0_2097
*135 FILLER_0_0_2101
*136 FILLER_0_0_2113
*137 FILLER_0_0_2125
*138 FILLER_0_0_2129
*139 FILLER_0_0_2141
*140 FILLER_0_0_2145
*141 FILLER_0_0_221
*142 FILLER_0_0_225
*143 FILLER_0_0_237
*144 FILLER_0_0_249
*145 FILLER_0_0_253
*146 FILLER_0_0_26
*147 FILLER_0_0_265
*148 FILLER_0_0_277
*149 FILLER_0_0_281
*150 FILLER_0_0_29
*151 FILLER_0_0_293
*152 FILLER_0_0_305
*153 FILLER_0_0_309
*154 FILLER_0_0_321
*155 FILLER_0_0_333
*156 FILLER_0_0_337
*157 FILLER_0_0_349
*158 FILLER_0_0_361
*159 FILLER_0_0_365
*160 FILLER_0_0_377
*161 FILLER_0_0_389
*162 FILLER_0_0_393
*163 FILLER_0_0_405
*164 FILLER_0_0_41
*165 FILLER_0_0_417
*166 FILLER_0_0_421
*167 FILLER_0_0_433
*168 FILLER_0_0_445
*169 FILLER_0_0_449
*170 FILLER_0_0_461
*171 FILLER_0_0_473
*172 FILLER_0_0_477
*173 FILLER_0_0_489
*174 FILLER_0_0_501
*175 FILLER_0_0_505
*176 FILLER_0_0_517
*177 FILLER_0_0_529
*178 FILLER_0_0_53
*179 FILLER_0_0_533
*180 FILLER_0_0_545
*181 FILLER_0_0_557
*182 FILLER_0_0_561
*183 FILLER_0_0_57
*184 FILLER_0_0_573
*185 FILLER_0_0_585
*186 FILLER_0_0_589
*187 FILLER_0_0_6
*188 FILLER_0_0_601
*189 FILLER_0_0_613
*190 FILLER_0_0_617
*191 FILLER_0_0_629
*192 FILLER_0_0_641
*193 FILLER_0_0_645
*194 FILLER_0_0_657
*195 FILLER_0_0_669
*196 FILLER_0_0_673
*197 FILLER_0_0_685
*198 FILLER_0_0_69
*199 FILLER_0_0_697
*200 FILLER_0_0_701
*201 FILLER_0_0_713
*202 FILLER_0_0_725
*203 FILLER_0_0_729
*204 FILLER_0_0_741
*205 FILLER_0_0_753
*206 FILLER_0_0_757
*207 FILLER_0_0_769
*208 FILLER_0_0_781
*209 FILLER_0_0_785
*210 FILLER_0_0_797
*211 FILLER_0_0_809
*212 FILLER_0_0_81
*213 FILLER_0_0_813
*214 FILLER_0_0_825
*215 FILLER_0_0_837
*216 FILLER_0_0_841
*217 FILLER_0_0_85
*218 FILLER_0_0_853
*219 FILLER_0_0_865
*220 FILLER_0_0_869
*221 FILLER_0_0_881
*222 FILLER_0_0_893
*223 FILLER_0_0_897
*224 FILLER_0_0_909
*225 FILLER_0_0_921
*226 FILLER_0_0_925
*227 FILLER_0_0_937
*228 FILLER_0_0_949
*229 FILLER_0_0_953
*230 FILLER_0_0_965
*231 FILLER_0_0_97
*232 FILLER_0_0_977
*233 FILLER_0_0_981
*234 FILLER_0_0_993
*235 FILLER_0_100_1005
*236 FILLER_0_100_1017
*237 FILLER_0_100_1029
*238 FILLER_0_100_1035
*239 FILLER_0_100_1037
*240 FILLER_0_100_1049
*241 FILLER_0_100_1061
*242 FILLER_0_100_1073
*243 FILLER_0_100_1085
*244 FILLER_0_100_109
*245 FILLER_0_100_1091
*246 FILLER_0_100_1093
*247 FILLER_0_100_1105
*248 FILLER_0_100_1117
*249 FILLER_0_100_1129
*250 FILLER_0_100_1141
*251 FILLER_0_100_1147
*252 FILLER_0_100_1149
*253 FILLER_0_100_1161
*254 FILLER_0_100_1173
*255 FILLER_0_100_1185
*256 FILLER_0_100_1197
*257 FILLER_0_100_1203
*258 FILLER_0_100_1205
*259 FILLER_0_100_121
*260 FILLER_0_100_1217
*261 FILLER_0_100_1229
*262 FILLER_0_100_1241
*263 FILLER_0_100_1253
*264 FILLER_0_100_1259
*265 FILLER_0_100_1261
*266 FILLER_0_100_1273
*267 FILLER_0_100_1285
*268 FILLER_0_100_1297
*269 FILLER_0_100_1309
*270 FILLER_0_100_1315
*271 FILLER_0_100_1317
*272 FILLER_0_100_1329
*273 FILLER_0_100_133
*274 FILLER_0_100_1341
*275 FILLER_0_100_1353
*276 FILLER_0_100_1365
*277 FILLER_0_100_1371
*278 FILLER_0_100_1373
*279 FILLER_0_100_1385
*280 FILLER_0_100_139
*281 FILLER_0_100_1397
*282 FILLER_0_100_1409
*283 FILLER_0_100_141
*284 FILLER_0_100_1421
*285 FILLER_0_100_1427
*286 FILLER_0_100_1429
*287 FILLER_0_100_1441
*288 FILLER_0_100_1453
*289 FILLER_0_100_1465
*290 FILLER_0_100_1477
*291 FILLER_0_100_1483
*292 FILLER_0_100_1485
*293 FILLER_0_100_1497
*294 FILLER_0_100_15
*295 FILLER_0_100_1509
*296 FILLER_0_100_1521
*297 FILLER_0_100_153
*298 FILLER_0_100_1533
*299 FILLER_0_100_1539
*300 FILLER_0_100_1541
*301 FILLER_0_100_1553
*302 FILLER_0_100_1565
*303 FILLER_0_100_1577
*304 FILLER_0_100_1589
*305 FILLER_0_100_1595
*306 FILLER_0_100_1597
*307 FILLER_0_100_1609
*308 FILLER_0_100_1621
*309 FILLER_0_100_1633
*310 FILLER_0_100_1645
*311 FILLER_0_100_165
*312 FILLER_0_100_1651
*313 FILLER_0_100_1653
*314 FILLER_0_100_1665
*315 FILLER_0_100_1677
*316 FILLER_0_100_1689
*317 FILLER_0_100_1701
*318 FILLER_0_100_1707
*319 FILLER_0_100_1709
*320 FILLER_0_100_1721
*321 FILLER_0_100_1733
*322 FILLER_0_100_1745
*323 FILLER_0_100_1757
*324 FILLER_0_100_1763
*325 FILLER_0_100_1765
*326 FILLER_0_100_177
*327 FILLER_0_100_1777
*328 FILLER_0_100_1789
*329 FILLER_0_100_1801
*330 FILLER_0_100_1813
*331 FILLER_0_100_1819
*332 FILLER_0_100_1821
*333 FILLER_0_100_1833
*334 FILLER_0_100_1845
*335 FILLER_0_100_1857
*336 FILLER_0_100_1869
*337 FILLER_0_100_1875
*338 FILLER_0_100_1877
*339 FILLER_0_100_1889
*340 FILLER_0_100_189
*341 FILLER_0_100_1901
*342 FILLER_0_100_1913
*343 FILLER_0_100_1925
*344 FILLER_0_100_1931
*345 FILLER_0_100_1933
*346 FILLER_0_100_1945
*347 FILLER_0_100_195
*348 FILLER_0_100_1957
*349 FILLER_0_100_1969
*350 FILLER_0_100_197
*351 FILLER_0_100_1981
*352 FILLER_0_100_1987
*353 FILLER_0_100_1989
*354 FILLER_0_100_2001
*355 FILLER_0_100_2013
*356 FILLER_0_100_2025
*357 FILLER_0_100_2037
*358 FILLER_0_100_2043
*359 FILLER_0_100_2045
*360 FILLER_0_100_2057
*361 FILLER_0_100_2069
*362 FILLER_0_100_2081
*363 FILLER_0_100_209
*364 FILLER_0_100_2093
*365 FILLER_0_100_2099
*366 FILLER_0_100_2101
*367 FILLER_0_100_2113
*368 FILLER_0_100_2125
*369 FILLER_0_100_2137
*370 FILLER_0_100_2145
*371 FILLER_0_100_221
*372 FILLER_0_100_233
*373 FILLER_0_100_245
*374 FILLER_0_100_251
*375 FILLER_0_100_253
*376 FILLER_0_100_265
*377 FILLER_0_100_27
*378 FILLER_0_100_277
*379 FILLER_0_100_289
*380 FILLER_0_100_29
*381 FILLER_0_100_3
*382 FILLER_0_100_301
*383 FILLER_0_100_307
*384 FILLER_0_100_309
*385 FILLER_0_100_321
*386 FILLER_0_100_333
*387 FILLER_0_100_345
*388 FILLER_0_100_357
*389 FILLER_0_100_363
*390 FILLER_0_100_365
*391 FILLER_0_100_377
*392 FILLER_0_100_389
*393 FILLER_0_100_401
*394 FILLER_0_100_41
*395 FILLER_0_100_413
*396 FILLER_0_100_419
*397 FILLER_0_100_421
*398 FILLER_0_100_433
*399 FILLER_0_100_445
*400 FILLER_0_100_457
*401 FILLER_0_100_469
*402 FILLER_0_100_475
*403 FILLER_0_100_477
*404 FILLER_0_100_489
*405 FILLER_0_100_501
*406 FILLER_0_100_513
*407 FILLER_0_100_525
*408 FILLER_0_100_53
*409 FILLER_0_100_531
*410 FILLER_0_100_533
*411 FILLER_0_100_545
*412 FILLER_0_100_557
*413 FILLER_0_100_569
*414 FILLER_0_100_581
*415 FILLER_0_100_587
*416 FILLER_0_100_589
*417 FILLER_0_100_601
*418 FILLER_0_100_613
*419 FILLER_0_100_625
*420 FILLER_0_100_637
*421 FILLER_0_100_643
*422 FILLER_0_100_645
*423 FILLER_0_100_65
*424 FILLER_0_100_657
*425 FILLER_0_100_669
*426 FILLER_0_100_681
*427 FILLER_0_100_693
*428 FILLER_0_100_699
*429 FILLER_0_100_701
*430 FILLER_0_100_713
*431 FILLER_0_100_725
*432 FILLER_0_100_737
*433 FILLER_0_100_749
*434 FILLER_0_100_755
*435 FILLER_0_100_757
*436 FILLER_0_100_769
*437 FILLER_0_100_77
*438 FILLER_0_100_781
*439 FILLER_0_100_793
*440 FILLER_0_100_805
*441 FILLER_0_100_811
*442 FILLER_0_100_813
*443 FILLER_0_100_825
*444 FILLER_0_100_83
*445 FILLER_0_100_837
*446 FILLER_0_100_849
*447 FILLER_0_100_85
*448 FILLER_0_100_861
*449 FILLER_0_100_867
*450 FILLER_0_100_869
*451 FILLER_0_100_881
*452 FILLER_0_100_893
*453 FILLER_0_100_905
*454 FILLER_0_100_917
*455 FILLER_0_100_923
*456 FILLER_0_100_925
*457 FILLER_0_100_937
*458 FILLER_0_100_949
*459 FILLER_0_100_961
*460 FILLER_0_100_97
*461 FILLER_0_100_973
*462 FILLER_0_100_979
*463 FILLER_0_100_981
*464 FILLER_0_100_993
*465 FILLER_0_101_1001
*466 FILLER_0_101_1007
*467 FILLER_0_101_1009
*468 FILLER_0_101_1021
*469 FILLER_0_101_1033
*470 FILLER_0_101_1045
*471 FILLER_0_101_105
*472 FILLER_0_101_1057
*473 FILLER_0_101_1063
*474 FILLER_0_101_1065
*475 FILLER_0_101_1077
*476 FILLER_0_101_1089
*477 FILLER_0_101_1101
*478 FILLER_0_101_111
*479 FILLER_0_101_1113
*480 FILLER_0_101_1119
*481 FILLER_0_101_1121
*482 FILLER_0_101_113
*483 FILLER_0_101_1133
*484 FILLER_0_101_1145
*485 FILLER_0_101_1157
*486 FILLER_0_101_1169
*487 FILLER_0_101_1175
*488 FILLER_0_101_1177
*489 FILLER_0_101_1189
*490 FILLER_0_101_1201
*491 FILLER_0_101_1213
*492 FILLER_0_101_1225
*493 FILLER_0_101_1231
*494 FILLER_0_101_1233
*495 FILLER_0_101_1245
*496 FILLER_0_101_125
*497 FILLER_0_101_1257
*498 FILLER_0_101_1269
*499 FILLER_0_101_1281
*500 FILLER_0_101_1287
*501 FILLER_0_101_1289
*502 FILLER_0_101_1301
*503 FILLER_0_101_1313
*504 FILLER_0_101_1325
*505 FILLER_0_101_1337
*506 FILLER_0_101_1343
*507 FILLER_0_101_1345
*508 FILLER_0_101_1357
*509 FILLER_0_101_1369
*510 FILLER_0_101_137
*511 FILLER_0_101_1381
*512 FILLER_0_101_1393
*513 FILLER_0_101_1399
*514 FILLER_0_101_1401
*515 FILLER_0_101_1413
*516 FILLER_0_101_1425
*517 FILLER_0_101_1437
*518 FILLER_0_101_1449
*519 FILLER_0_101_1455
*520 FILLER_0_101_1457
*521 FILLER_0_101_1469
*522 FILLER_0_101_1481
*523 FILLER_0_101_149
*524 FILLER_0_101_1493
*525 FILLER_0_101_15
*526 FILLER_0_101_1505
*527 FILLER_0_101_1511
*528 FILLER_0_101_1513
*529 FILLER_0_101_1525
*530 FILLER_0_101_1537
*531 FILLER_0_101_1549
*532 FILLER_0_101_1561
*533 FILLER_0_101_1567
*534 FILLER_0_101_1569
*535 FILLER_0_101_1581
*536 FILLER_0_101_1593
*537 FILLER_0_101_1605
*538 FILLER_0_101_161
*539 FILLER_0_101_1617
*540 FILLER_0_101_1623
*541 FILLER_0_101_1625
*542 FILLER_0_101_1637
*543 FILLER_0_101_1649
*544 FILLER_0_101_1661
*545 FILLER_0_101_167
*546 FILLER_0_101_1673
*547 FILLER_0_101_1679
*548 FILLER_0_101_1681
*549 FILLER_0_101_169
*550 FILLER_0_101_1693
*551 FILLER_0_101_1705
*552 FILLER_0_101_1717
*553 FILLER_0_101_1729
*554 FILLER_0_101_1735
*555 FILLER_0_101_1737
*556 FILLER_0_101_1749
*557 FILLER_0_101_1761
*558 FILLER_0_101_1773
*559 FILLER_0_101_1785
*560 FILLER_0_101_1791
*561 FILLER_0_101_1793
*562 FILLER_0_101_1805
*563 FILLER_0_101_181
*564 FILLER_0_101_1817
*565 FILLER_0_101_1829
*566 FILLER_0_101_1841
*567 FILLER_0_101_1847
*568 FILLER_0_101_1849
*569 FILLER_0_101_1861
*570 FILLER_0_101_1873
*571 FILLER_0_101_1885
*572 FILLER_0_101_1897
*573 FILLER_0_101_1903
*574 FILLER_0_101_1905
*575 FILLER_0_101_1917
*576 FILLER_0_101_1929
*577 FILLER_0_101_193
*578 FILLER_0_101_1941
*579 FILLER_0_101_1953
*580 FILLER_0_101_1959
*581 FILLER_0_101_1961
*582 FILLER_0_101_1973
*583 FILLER_0_101_1985
*584 FILLER_0_101_1997
*585 FILLER_0_101_2009
*586 FILLER_0_101_2015
*587 FILLER_0_101_2017
*588 FILLER_0_101_2029
*589 FILLER_0_101_2041
*590 FILLER_0_101_205
*591 FILLER_0_101_2053
*592 FILLER_0_101_2065
*593 FILLER_0_101_2071
*594 FILLER_0_101_2073
*595 FILLER_0_101_2085
*596 FILLER_0_101_2097
*597 FILLER_0_101_2109
*598 FILLER_0_101_2121
*599 FILLER_0_101_2127
*600 FILLER_0_101_2129
*601 FILLER_0_101_2141
*602 FILLER_0_101_2145
*603 FILLER_0_101_217
*604 FILLER_0_101_223
*605 FILLER_0_101_225
*606 FILLER_0_101_237
*607 FILLER_0_101_249
*608 FILLER_0_101_261
*609 FILLER_0_101_27
*610 FILLER_0_101_273
*611 FILLER_0_101_279
*612 FILLER_0_101_281
*613 FILLER_0_101_293
*614 FILLER_0_101_3
*615 FILLER_0_101_305
*616 FILLER_0_101_317
*617 FILLER_0_101_329
*618 FILLER_0_101_335
*619 FILLER_0_101_337
*620 FILLER_0_101_349
*621 FILLER_0_101_361
*622 FILLER_0_101_373
*623 FILLER_0_101_385
*624 FILLER_0_101_39
*625 FILLER_0_101_391
*626 FILLER_0_101_393
*627 FILLER_0_101_405
*628 FILLER_0_101_417
*629 FILLER_0_101_429
*630 FILLER_0_101_441
*631 FILLER_0_101_447
*632 FILLER_0_101_449
*633 FILLER_0_101_461
*634 FILLER_0_101_473
*635 FILLER_0_101_485
*636 FILLER_0_101_497
*637 FILLER_0_101_503
*638 FILLER_0_101_505
*639 FILLER_0_101_51
*640 FILLER_0_101_517
*641 FILLER_0_101_529
*642 FILLER_0_101_541
*643 FILLER_0_101_55
*644 FILLER_0_101_553
*645 FILLER_0_101_559
*646 FILLER_0_101_561
*647 FILLER_0_101_57
*648 FILLER_0_101_573
*649 FILLER_0_101_585
*650 FILLER_0_101_597
*651 FILLER_0_101_609
*652 FILLER_0_101_615
*653 FILLER_0_101_617
*654 FILLER_0_101_629
*655 FILLER_0_101_641
*656 FILLER_0_101_653
*657 FILLER_0_101_665
*658 FILLER_0_101_671
*659 FILLER_0_101_673
*660 FILLER_0_101_685
*661 FILLER_0_101_69
*662 FILLER_0_101_697
*663 FILLER_0_101_709
*664 FILLER_0_101_721
*665 FILLER_0_101_727
*666 FILLER_0_101_729
*667 FILLER_0_101_741
*668 FILLER_0_101_753
*669 FILLER_0_101_765
*670 FILLER_0_101_777
*671 FILLER_0_101_783
*672 FILLER_0_101_785
*673 FILLER_0_101_797
*674 FILLER_0_101_809
*675 FILLER_0_101_81
*676 FILLER_0_101_821
*677 FILLER_0_101_833
*678 FILLER_0_101_839
*679 FILLER_0_101_841
*680 FILLER_0_101_853
*681 FILLER_0_101_865
*682 FILLER_0_101_877
*683 FILLER_0_101_889
*684 FILLER_0_101_895
*685 FILLER_0_101_897
*686 FILLER_0_101_909
*687 FILLER_0_101_921
*688 FILLER_0_101_93
*689 FILLER_0_101_933
*690 FILLER_0_101_945
*691 FILLER_0_101_951
*692 FILLER_0_101_953
*693 FILLER_0_101_965
*694 FILLER_0_101_977
*695 FILLER_0_101_989
*696 FILLER_0_102_1005
*697 FILLER_0_102_1017
*698 FILLER_0_102_1029
*699 FILLER_0_102_1035
*700 FILLER_0_102_1037
*701 FILLER_0_102_1049
*702 FILLER_0_102_1061
*703 FILLER_0_102_1073
*704 FILLER_0_102_1085
*705 FILLER_0_102_109
*706 FILLER_0_102_1091
*707 FILLER_0_102_1093
*708 FILLER_0_102_1105
*709 FILLER_0_102_1117
*710 FILLER_0_102_1129
*711 FILLER_0_102_1141
*712 FILLER_0_102_1147
*713 FILLER_0_102_1149
*714 FILLER_0_102_1161
*715 FILLER_0_102_1173
*716 FILLER_0_102_1185
*717 FILLER_0_102_1197
*718 FILLER_0_102_1203
*719 FILLER_0_102_1205
*720 FILLER_0_102_121
*721 FILLER_0_102_1217
*722 FILLER_0_102_1229
*723 FILLER_0_102_1241
*724 FILLER_0_102_1253
*725 FILLER_0_102_1259
*726 FILLER_0_102_1261
*727 FILLER_0_102_1273
*728 FILLER_0_102_1285
*729 FILLER_0_102_1297
*730 FILLER_0_102_1309
*731 FILLER_0_102_1315
*732 FILLER_0_102_1317
*733 FILLER_0_102_1329
*734 FILLER_0_102_133
*735 FILLER_0_102_1341
*736 FILLER_0_102_1353
*737 FILLER_0_102_1365
*738 FILLER_0_102_1371
*739 FILLER_0_102_1373
*740 FILLER_0_102_1385
*741 FILLER_0_102_139
*742 FILLER_0_102_1397
*743 FILLER_0_102_1409
*744 FILLER_0_102_141
*745 FILLER_0_102_1421
*746 FILLER_0_102_1427
*747 FILLER_0_102_1429
*748 FILLER_0_102_1441
*749 FILLER_0_102_1453
*750 FILLER_0_102_1465
*751 FILLER_0_102_1477
*752 FILLER_0_102_1483
*753 FILLER_0_102_1485
*754 FILLER_0_102_1497
*755 FILLER_0_102_15
*756 FILLER_0_102_1509
*757 FILLER_0_102_1521
*758 FILLER_0_102_153
*759 FILLER_0_102_1533
*760 FILLER_0_102_1539
*761 FILLER_0_102_1541
*762 FILLER_0_102_1553
*763 FILLER_0_102_1565
*764 FILLER_0_102_1577
*765 FILLER_0_102_1589
*766 FILLER_0_102_1595
*767 FILLER_0_102_1597
*768 FILLER_0_102_1609
*769 FILLER_0_102_1621
*770 FILLER_0_102_1633
*771 FILLER_0_102_1645
*772 FILLER_0_102_165
*773 FILLER_0_102_1651
*774 FILLER_0_102_1653
*775 FILLER_0_102_1665
*776 FILLER_0_102_1677
*777 FILLER_0_102_1689
*778 FILLER_0_102_1701
*779 FILLER_0_102_1707
*780 FILLER_0_102_1709
*781 FILLER_0_102_1721
*782 FILLER_0_102_1733
*783 FILLER_0_102_1745
*784 FILLER_0_102_1757
*785 FILLER_0_102_1763
*786 FILLER_0_102_1765
*787 FILLER_0_102_177
*788 FILLER_0_102_1777
*789 FILLER_0_102_1789
*790 FILLER_0_102_1801
*791 FILLER_0_102_1813
*792 FILLER_0_102_1819
*793 FILLER_0_102_1821
*794 FILLER_0_102_1833
*795 FILLER_0_102_1845
*796 FILLER_0_102_1857
*797 FILLER_0_102_1869
*798 FILLER_0_102_1875
*799 FILLER_0_102_1877
*800 FILLER_0_102_1889
*801 FILLER_0_102_189
*802 FILLER_0_102_1901
*803 FILLER_0_102_1913
*804 FILLER_0_102_1925
*805 FILLER_0_102_1931
*806 FILLER_0_102_1933
*807 FILLER_0_102_1945
*808 FILLER_0_102_195
*809 FILLER_0_102_1957
*810 FILLER_0_102_1969
*811 FILLER_0_102_197
*812 FILLER_0_102_1981
*813 FILLER_0_102_1987
*814 FILLER_0_102_1989
*815 FILLER_0_102_2001
*816 FILLER_0_102_2013
*817 FILLER_0_102_2025
*818 FILLER_0_102_2037
*819 FILLER_0_102_2043
*820 FILLER_0_102_2045
*821 FILLER_0_102_2057
*822 FILLER_0_102_2069
*823 FILLER_0_102_2081
*824 FILLER_0_102_209
*825 FILLER_0_102_2093
*826 FILLER_0_102_2099
*827 FILLER_0_102_2101
*828 FILLER_0_102_2113
*829 FILLER_0_102_2125
*830 FILLER_0_102_2137
*831 FILLER_0_102_2145
*832 FILLER_0_102_221
*833 FILLER_0_102_233
*834 FILLER_0_102_245
*835 FILLER_0_102_251
*836 FILLER_0_102_253
*837 FILLER_0_102_265
*838 FILLER_0_102_27
*839 FILLER_0_102_277
*840 FILLER_0_102_289
*841 FILLER_0_102_29
*842 FILLER_0_102_3
*843 FILLER_0_102_301
*844 FILLER_0_102_307
*845 FILLER_0_102_309
*846 FILLER_0_102_321
*847 FILLER_0_102_333
*848 FILLER_0_102_345
*849 FILLER_0_102_357
*850 FILLER_0_102_363
*851 FILLER_0_102_365
*852 FILLER_0_102_377
*853 FILLER_0_102_389
*854 FILLER_0_102_401
*855 FILLER_0_102_41
*856 FILLER_0_102_413
*857 FILLER_0_102_419
*858 FILLER_0_102_421
*859 FILLER_0_102_433
*860 FILLER_0_102_445
*861 FILLER_0_102_457
*862 FILLER_0_102_469
*863 FILLER_0_102_475
*864 FILLER_0_102_477
*865 FILLER_0_102_489
*866 FILLER_0_102_501
*867 FILLER_0_102_513
*868 FILLER_0_102_525
*869 FILLER_0_102_53
*870 FILLER_0_102_531
*871 FILLER_0_102_533
*872 FILLER_0_102_545
*873 FILLER_0_102_557
*874 FILLER_0_102_569
*875 FILLER_0_102_581
*876 FILLER_0_102_587
*877 FILLER_0_102_589
*878 FILLER_0_102_601
*879 FILLER_0_102_613
*880 FILLER_0_102_625
*881 FILLER_0_102_637
*882 FILLER_0_102_643
*883 FILLER_0_102_645
*884 FILLER_0_102_65
*885 FILLER_0_102_657
*886 FILLER_0_102_669
*887 FILLER_0_102_681
*888 FILLER_0_102_693
*889 FILLER_0_102_699
*890 FILLER_0_102_701
*891 FILLER_0_102_713
*892 FILLER_0_102_725
*893 FILLER_0_102_737
*894 FILLER_0_102_749
*895 FILLER_0_102_755
*896 FILLER_0_102_757
*897 FILLER_0_102_769
*898 FILLER_0_102_77
*899 FILLER_0_102_781
*900 FILLER_0_102_793
*901 FILLER_0_102_805
*902 FILLER_0_102_811
*903 FILLER_0_102_813
*904 FILLER_0_102_825
*905 FILLER_0_102_83
*906 FILLER_0_102_837
*907 FILLER_0_102_849
*908 FILLER_0_102_85
*909 FILLER_0_102_861
*910 FILLER_0_102_867
*911 FILLER_0_102_869
*912 FILLER_0_102_881
*913 FILLER_0_102_893
*914 FILLER_0_102_905
*915 FILLER_0_102_917
*916 FILLER_0_102_923
*917 FILLER_0_102_925
*918 FILLER_0_102_937
*919 FILLER_0_102_949
*920 FILLER_0_102_961
*921 FILLER_0_102_97
*922 FILLER_0_102_973
*923 FILLER_0_102_979
*924 FILLER_0_102_981
*925 FILLER_0_102_993
*926 FILLER_0_103_1001
*927 FILLER_0_103_1007
*928 FILLER_0_103_1009
*929 FILLER_0_103_1021
*930 FILLER_0_103_1033
*931 FILLER_0_103_1045
*932 FILLER_0_103_105
*933 FILLER_0_103_1057
*934 FILLER_0_103_1063
*935 FILLER_0_103_1065
*936 FILLER_0_103_1077
*937 FILLER_0_103_1089
*938 FILLER_0_103_1101
*939 FILLER_0_103_111
*940 FILLER_0_103_1113
*941 FILLER_0_103_1119
*942 FILLER_0_103_1121
*943 FILLER_0_103_113
*944 FILLER_0_103_1133
*945 FILLER_0_103_1145
*946 FILLER_0_103_1157
*947 FILLER_0_103_1169
*948 FILLER_0_103_1175
*949 FILLER_0_103_1177
*950 FILLER_0_103_1189
*951 FILLER_0_103_1201
*952 FILLER_0_103_1213
*953 FILLER_0_103_1225
*954 FILLER_0_103_1231
*955 FILLER_0_103_1233
*956 FILLER_0_103_1245
*957 FILLER_0_103_125
*958 FILLER_0_103_1257
*959 FILLER_0_103_1269
*960 FILLER_0_103_1281
*961 FILLER_0_103_1287
*962 FILLER_0_103_1289
*963 FILLER_0_103_1301
*964 FILLER_0_103_1313
*965 FILLER_0_103_1325
*966 FILLER_0_103_1337
*967 FILLER_0_103_1343
*968 FILLER_0_103_1345
*969 FILLER_0_103_1357
*970 FILLER_0_103_1369
*971 FILLER_0_103_137
*972 FILLER_0_103_1381
*973 FILLER_0_103_1393
*974 FILLER_0_103_1399
*975 FILLER_0_103_1401
*976 FILLER_0_103_1413
*977 FILLER_0_103_1425
*978 FILLER_0_103_1437
*979 FILLER_0_103_1449
*980 FILLER_0_103_1455
*981 FILLER_0_103_1457
*982 FILLER_0_103_1469
*983 FILLER_0_103_1481
*984 FILLER_0_103_149
*985 FILLER_0_103_1493
*986 FILLER_0_103_15
*987 FILLER_0_103_1505
*988 FILLER_0_103_1511
*989 FILLER_0_103_1513
*990 FILLER_0_103_1525
*991 FILLER_0_103_1537
*992 FILLER_0_103_1549
*993 FILLER_0_103_1561
*994 FILLER_0_103_1567
*995 FILLER_0_103_1569
*996 FILLER_0_103_1581
*997 FILLER_0_103_1593
*998 FILLER_0_103_1605
*999 FILLER_0_103_161
*1000 FILLER_0_103_1617
*1001 FILLER_0_103_1623
*1002 FILLER_0_103_1625
*1003 FILLER_0_103_1637
*1004 FILLER_0_103_1649
*1005 FILLER_0_103_1661
*1006 FILLER_0_103_167
*1007 FILLER_0_103_1673
*1008 FILLER_0_103_1679
*1009 FILLER_0_103_1681
*1010 FILLER_0_103_169
*1011 FILLER_0_103_1693
*1012 FILLER_0_103_1705
*1013 FILLER_0_103_1717
*1014 FILLER_0_103_1729
*1015 FILLER_0_103_1735
*1016 FILLER_0_103_1737
*1017 FILLER_0_103_1749
*1018 FILLER_0_103_1761
*1019 FILLER_0_103_1773
*1020 FILLER_0_103_1785
*1021 FILLER_0_103_1791
*1022 FILLER_0_103_1793
*1023 FILLER_0_103_1805
*1024 FILLER_0_103_181
*1025 FILLER_0_103_1817
*1026 FILLER_0_103_1829
*1027 FILLER_0_103_1841
*1028 FILLER_0_103_1847
*1029 FILLER_0_103_1849
*1030 FILLER_0_103_1861
*1031 FILLER_0_103_1873
*1032 FILLER_0_103_1885
*1033 FILLER_0_103_1897
*1034 FILLER_0_103_1903
*1035 FILLER_0_103_1905
*1036 FILLER_0_103_1917
*1037 FILLER_0_103_1929
*1038 FILLER_0_103_193
*1039 FILLER_0_103_1941
*1040 FILLER_0_103_1953
*1041 FILLER_0_103_1959
*1042 FILLER_0_103_1961
*1043 FILLER_0_103_1973
*1044 FILLER_0_103_1985
*1045 FILLER_0_103_1997
*1046 FILLER_0_103_2009
*1047 FILLER_0_103_2015
*1048 FILLER_0_103_2017
*1049 FILLER_0_103_2029
*1050 FILLER_0_103_2041
*1051 FILLER_0_103_205
*1052 FILLER_0_103_2053
*1053 FILLER_0_103_2065
*1054 FILLER_0_103_2071
*1055 FILLER_0_103_2073
*1056 FILLER_0_103_2085
*1057 FILLER_0_103_2097
*1058 FILLER_0_103_2109
*1059 FILLER_0_103_2121
*1060 FILLER_0_103_2127
*1061 FILLER_0_103_2129
*1062 FILLER_0_103_2141
*1063 FILLER_0_103_2145
*1064 FILLER_0_103_217
*1065 FILLER_0_103_223
*1066 FILLER_0_103_225
*1067 FILLER_0_103_237
*1068 FILLER_0_103_249
*1069 FILLER_0_103_261
*1070 FILLER_0_103_27
*1071 FILLER_0_103_273
*1072 FILLER_0_103_279
*1073 FILLER_0_103_281
*1074 FILLER_0_103_293
*1075 FILLER_0_103_3
*1076 FILLER_0_103_305
*1077 FILLER_0_103_317
*1078 FILLER_0_103_329
*1079 FILLER_0_103_335
*1080 FILLER_0_103_337
*1081 FILLER_0_103_349
*1082 FILLER_0_103_361
*1083 FILLER_0_103_373
*1084 FILLER_0_103_385
*1085 FILLER_0_103_39
*1086 FILLER_0_103_391
*1087 FILLER_0_103_393
*1088 FILLER_0_103_405
*1089 FILLER_0_103_417
*1090 FILLER_0_103_429
*1091 FILLER_0_103_441
*1092 FILLER_0_103_447
*1093 FILLER_0_103_449
*1094 FILLER_0_103_461
*1095 FILLER_0_103_473
*1096 FILLER_0_103_485
*1097 FILLER_0_103_497
*1098 FILLER_0_103_503
*1099 FILLER_0_103_505
*1100 FILLER_0_103_51
*1101 FILLER_0_103_517
*1102 FILLER_0_103_529
*1103 FILLER_0_103_541
*1104 FILLER_0_103_55
*1105 FILLER_0_103_553
*1106 FILLER_0_103_559
*1107 FILLER_0_103_561
*1108 FILLER_0_103_57
*1109 FILLER_0_103_573
*1110 FILLER_0_103_585
*1111 FILLER_0_103_597
*1112 FILLER_0_103_609
*1113 FILLER_0_103_615
*1114 FILLER_0_103_617
*1115 FILLER_0_103_629
*1116 FILLER_0_103_641
*1117 FILLER_0_103_653
*1118 FILLER_0_103_665
*1119 FILLER_0_103_671
*1120 FILLER_0_103_673
*1121 FILLER_0_103_685
*1122 FILLER_0_103_69
*1123 FILLER_0_103_697
*1124 FILLER_0_103_709
*1125 FILLER_0_103_721
*1126 FILLER_0_103_727
*1127 FILLER_0_103_729
*1128 FILLER_0_103_741
*1129 FILLER_0_103_753
*1130 FILLER_0_103_765
*1131 FILLER_0_103_777
*1132 FILLER_0_103_783
*1133 FILLER_0_103_785
*1134 FILLER_0_103_797
*1135 FILLER_0_103_809
*1136 FILLER_0_103_81
*1137 FILLER_0_103_821
*1138 FILLER_0_103_833
*1139 FILLER_0_103_839
*1140 FILLER_0_103_841
*1141 FILLER_0_103_853
*1142 FILLER_0_103_865
*1143 FILLER_0_103_877
*1144 FILLER_0_103_889
*1145 FILLER_0_103_895
*1146 FILLER_0_103_897
*1147 FILLER_0_103_909
*1148 FILLER_0_103_921
*1149 FILLER_0_103_93
*1150 FILLER_0_103_933
*1151 FILLER_0_103_945
*1152 FILLER_0_103_951
*1153 FILLER_0_103_953
*1154 FILLER_0_103_965
*1155 FILLER_0_103_977
*1156 FILLER_0_103_989
*1157 FILLER_0_104_1005
*1158 FILLER_0_104_1017
*1159 FILLER_0_104_1029
*1160 FILLER_0_104_1035
*1161 FILLER_0_104_1037
*1162 FILLER_0_104_1049
*1163 FILLER_0_104_1061
*1164 FILLER_0_104_1073
*1165 FILLER_0_104_1085
*1166 FILLER_0_104_109
*1167 FILLER_0_104_1091
*1168 FILLER_0_104_1093
*1169 FILLER_0_104_1105
*1170 FILLER_0_104_1117
*1171 FILLER_0_104_1129
*1172 FILLER_0_104_1141
*1173 FILLER_0_104_1147
*1174 FILLER_0_104_1149
*1175 FILLER_0_104_1161
*1176 FILLER_0_104_1173
*1177 FILLER_0_104_1185
*1178 FILLER_0_104_1197
*1179 FILLER_0_104_1203
*1180 FILLER_0_104_1205
*1181 FILLER_0_104_121
*1182 FILLER_0_104_1217
*1183 FILLER_0_104_1229
*1184 FILLER_0_104_1241
*1185 FILLER_0_104_1253
*1186 FILLER_0_104_1259
*1187 FILLER_0_104_1261
*1188 FILLER_0_104_1273
*1189 FILLER_0_104_1285
*1190 FILLER_0_104_1297
*1191 FILLER_0_104_1309
*1192 FILLER_0_104_1315
*1193 FILLER_0_104_1317
*1194 FILLER_0_104_1329
*1195 FILLER_0_104_133
*1196 FILLER_0_104_1341
*1197 FILLER_0_104_1353
*1198 FILLER_0_104_1365
*1199 FILLER_0_104_1371
*1200 FILLER_0_104_1373
*1201 FILLER_0_104_1385
*1202 FILLER_0_104_139
*1203 FILLER_0_104_1397
*1204 FILLER_0_104_1409
*1205 FILLER_0_104_141
*1206 FILLER_0_104_1421
*1207 FILLER_0_104_1427
*1208 FILLER_0_104_1429
*1209 FILLER_0_104_1441
*1210 FILLER_0_104_1453
*1211 FILLER_0_104_1465
*1212 FILLER_0_104_1477
*1213 FILLER_0_104_1483
*1214 FILLER_0_104_1485
*1215 FILLER_0_104_1497
*1216 FILLER_0_104_15
*1217 FILLER_0_104_1509
*1218 FILLER_0_104_1521
*1219 FILLER_0_104_153
*1220 FILLER_0_104_1533
*1221 FILLER_0_104_1539
*1222 FILLER_0_104_1541
*1223 FILLER_0_104_1553
*1224 FILLER_0_104_1565
*1225 FILLER_0_104_1577
*1226 FILLER_0_104_1589
*1227 FILLER_0_104_1595
*1228 FILLER_0_104_1597
*1229 FILLER_0_104_1609
*1230 FILLER_0_104_1621
*1231 FILLER_0_104_1633
*1232 FILLER_0_104_1645
*1233 FILLER_0_104_165
*1234 FILLER_0_104_1651
*1235 FILLER_0_104_1653
*1236 FILLER_0_104_1665
*1237 FILLER_0_104_1677
*1238 FILLER_0_104_1689
*1239 FILLER_0_104_1701
*1240 FILLER_0_104_1707
*1241 FILLER_0_104_1709
*1242 FILLER_0_104_1721
*1243 FILLER_0_104_1733
*1244 FILLER_0_104_1745
*1245 FILLER_0_104_1757
*1246 FILLER_0_104_1763
*1247 FILLER_0_104_1765
*1248 FILLER_0_104_177
*1249 FILLER_0_104_1777
*1250 FILLER_0_104_1789
*1251 FILLER_0_104_1801
*1252 FILLER_0_104_1813
*1253 FILLER_0_104_1819
*1254 FILLER_0_104_1821
*1255 FILLER_0_104_1833
*1256 FILLER_0_104_1845
*1257 FILLER_0_104_1857
*1258 FILLER_0_104_1869
*1259 FILLER_0_104_1875
*1260 FILLER_0_104_1877
*1261 FILLER_0_104_1889
*1262 FILLER_0_104_189
*1263 FILLER_0_104_1901
*1264 FILLER_0_104_1913
*1265 FILLER_0_104_1925
*1266 FILLER_0_104_1931
*1267 FILLER_0_104_1933
*1268 FILLER_0_104_1945
*1269 FILLER_0_104_195
*1270 FILLER_0_104_1957
*1271 FILLER_0_104_1969
*1272 FILLER_0_104_197
*1273 FILLER_0_104_1981
*1274 FILLER_0_104_1987
*1275 FILLER_0_104_1989
*1276 FILLER_0_104_2001
*1277 FILLER_0_104_2013
*1278 FILLER_0_104_2025
*1279 FILLER_0_104_2037
*1280 FILLER_0_104_2043
*1281 FILLER_0_104_2045
*1282 FILLER_0_104_2057
*1283 FILLER_0_104_2069
*1284 FILLER_0_104_2081
*1285 FILLER_0_104_209
*1286 FILLER_0_104_2093
*1287 FILLER_0_104_2099
*1288 FILLER_0_104_2101
*1289 FILLER_0_104_2113
*1290 FILLER_0_104_2125
*1291 FILLER_0_104_2137
*1292 FILLER_0_104_2145
*1293 FILLER_0_104_221
*1294 FILLER_0_104_233
*1295 FILLER_0_104_245
*1296 FILLER_0_104_251
*1297 FILLER_0_104_253
*1298 FILLER_0_104_265
*1299 FILLER_0_104_27
*1300 FILLER_0_104_277
*1301 FILLER_0_104_289
*1302 FILLER_0_104_29
*1303 FILLER_0_104_3
*1304 FILLER_0_104_301
*1305 FILLER_0_104_307
*1306 FILLER_0_104_309
*1307 FILLER_0_104_321
*1308 FILLER_0_104_333
*1309 FILLER_0_104_345
*1310 FILLER_0_104_357
*1311 FILLER_0_104_363
*1312 FILLER_0_104_365
*1313 FILLER_0_104_377
*1314 FILLER_0_104_389
*1315 FILLER_0_104_401
*1316 FILLER_0_104_41
*1317 FILLER_0_104_413
*1318 FILLER_0_104_419
*1319 FILLER_0_104_421
*1320 FILLER_0_104_433
*1321 FILLER_0_104_445
*1322 FILLER_0_104_457
*1323 FILLER_0_104_469
*1324 FILLER_0_104_475
*1325 FILLER_0_104_477
*1326 FILLER_0_104_489
*1327 FILLER_0_104_501
*1328 FILLER_0_104_513
*1329 FILLER_0_104_525
*1330 FILLER_0_104_53
*1331 FILLER_0_104_531